file 6699 1479452808                                            
version 2
run Wireless01-0-20161118-12:34:42-6580
attr configname Wireless01
attr datetime 20161118-12:34:42
attr experiment Wireless01
attr inifile omnetpp.ini
attr iterationvars ""
attr iterationvars2 $repetition=0
attr measurement ""
attr network testing.WirelessA
attr processid 6580
attr repetition 0
attr replication #0
attr resultdir results
attr runnumber 0
attr seedset 0
param *.host*.**.bitrate 1Mbps
param *.host*.networkLayer.arpType "\"GlobalARP\""
param *.host*.wlan[0].mac.fullDuplex false
param *.host*.wlan[0].mac.useAck false
param *.host*.wlan[0].radio.receiver.ignoreInterference true
param *.host*.wlan[0].radio.transmitter.communicationRange 500m
param *.host*.wlan[0].typename "\"IdealWirelessNic\""
param *.hostA.numUdpApps 1
param *.hostA.udpApp[0].destAddresses "\"hostB\""
param *.hostA.udpApp[0].destPort 5000
param *.hostA.udpApp[0].messageLength 1000B
param *.hostA.udpApp[0].packetName "\"UDPData\""
param *.hostA.udpApp[0].sendInterval exponential(12ms)
param *.hostA.udpApp[0].typename "\"UDPBasicApp\""
param *.hostB.numUdpApps 1
param *.hostB.udpApp[0].localPort 5000
param *.hostB.udpApp[0].typename "\"UDPSink\""

vector 15  WirelessA.hostA.wlan[0].queue  queueLength:vector  ETV
attr interpolationmode  sample-hold
attr title  "queue length, vector"
vector 38  WirelessA.hostB.wlan[0].queue  queueLength:vector  ETV
attr interpolationmode  sample-hold
attr title  "queue length, vector"
vector 21  WirelessA.hostA.wlan[0].radio  radioMode:vector  ETV
attr interpolationmode  sample-hold
attr source  radioModeChanged
attr title  "Radio mode, vector"
vector 44  WirelessA.hostB.wlan[0].radio  radioMode:vector  ETV
attr interpolationmode  sample-hold
attr source  radioModeChanged
attr title  "Radio mode, vector"
vector 22  WirelessA.hostA.wlan[0].radio  receptionState:vector  ETV
attr interpolationmode  sample-hold
attr source  receptionStateChanged
attr title  "Radio reception state, vector"
vector 45  WirelessA.hostB.wlan[0].radio  receptionState:vector  ETV
attr interpolationmode  sample-hold
attr source  receptionStateChanged
attr title  "Radio reception state, vector"
vector 1  WirelessA.hostA.udpApp[0]  sentPk:vector(packetBytes)  ETV
attr interpolationmode  none
attr source  sentPk
attr title  "packets sent, vector(packetBytes)"
vector 4  WirelessA.hostA.udp  sentPk:vector(packetBytes)  ETV
attr interpolationmode  none
attr source  sentPk
attr title  "packets sent, vector(packetBytes)"
vector 12  WirelessA.hostA.wlan[0].queue  rcvdPk:vector(packetBytes)  ETV
attr interpolationmode  none
attr title  "received packets, vector(packetBytes)"
vector 14  WirelessA.hostA.wlan[0].queue  queueingTime:vector  ETV
attr interpolationmode  none
attr title  "queueing time, vector"
vector 18  WirelessA.hostA.wlan[0].mac  rcvdPkFromHL:vector(packetBytes)  ETV
attr interpolationmode  none
attr source  packetReceivedFromUpper
attr title  "packets received from higher layer, vector(packetBytes)"
vector 23  WirelessA.hostA.wlan[0].radio  transmissionState:vector  ETV
attr interpolationmode  sample-hold
attr source  transmissionStateChanged
attr title  "Radio transmission state, vector"
vector 17  WirelessA.hostA.wlan[0].mac  sentDownPk:vector(packetBytes)  ETV
attr interpolationmode  none
attr source  packetSentToLower
attr title  "packets sent to lower layer, vector(packetBytes)"
vector 42  WirelessA.hostB.wlan[0].mac  rcvdPkFromLL:vector(packetBytes)  ETV
attr interpolationmode  none
attr source  packetReceivedFromLower
attr title  "packets received from lower layer, vector(packetBytes)"
vector 39  WirelessA.hostB.wlan[0].mac  passedUpPk:vector(packetBytes)  ETV
attr interpolationmode  none
attr source  packetSentToUpper
attr title  "packets passed to higher layer, vector(packetBytes)"
vector 28  WirelessA.hostB.udp  rcvdPk:vector(packetBytes)  ETV
attr interpolationmode  none
attr source  rcvdPk
attr title  "packets received, vector(packetBytes)"
vector 29  WirelessA.hostB.udp  passedUpPk:vector(count)  ETV
attr interpolationmode  none
attr title  "packets passed up, vector(count)"
vector 24  WirelessA.hostB.udpApp[0]  rcvdPk:vector(packetBytes)  ETV
attr interpolationmode  none
attr source  rcvdPk
attr title  "packets received, vector(packetBytes)"
vector 25  WirelessA.hostB.udpApp[0]  endToEndDelay:vector  ETV
attr interpolationmode  none
attr source  messageAge(rcvdPk)
attr title  "end-to-end delay, vector"
attr unit  s
vector 26  WirelessA.hostB.udpApp[0]  rcvdPkSeqNo:vector  ETV
attr interpolationmode  none
attr source  appPkSeqNo(rcvdPk)
attr title  "received packet sequence number, vector"
1	4692 104 10 45 0.022315250545 0.048291974356 4 1000 1000 4000 4000000
4	4796 104 12 46 0.022315250545 0.048291974356 4 1008 1008 4032 4064256
12	4900 108 14 48 0.022315250545 0.048291974356 4 1028 1028 4112 4227136
14	5008 121 14 50 0.022315250545 0.049609743993 4 0 0.00161141816 0.002929187797 4.3331853025769e-006
15	5129 106 0 50 0 0.049609743993 5 0 1 2 2
17	5235 108 15 51 0.022315250545 0.049609743993 4 1028 1028 4112 4227136
18	5343 108 15 51 0.022315250545 0.049609743993 4 1028 1028 4112 4227136
21	5451 188 0 51 0 0.049609743993 9 0 3 20 52
22	5639 178 0 51 0 0.049609743993 8 0 1 4 4
23	5817 336 15 52 0.022315250545 0.049609743993 14 0 2 15 23
24	6153 54 30 36 0.030540584801 0.038764584801 2 1000 1000 2000 2000000
25	6207 74 30 36 0.030540584801 0.038764584801 2 0.008225334256 0.009836752416 0.018062086672 0.00016441782171661
26	6281 48 30 36 0.030540584801 0.038764584801 2 0 1 1 1
28	6329 54 29 35 0.030540584801 0.038764584801 2 1008 1008 2016 2032128
29	6383 48 29 35 0.030540584801 0.038764584801 2 1 2 3 5
38	6431 10 0 0 0 0 1 0 0 0 0
39	6441 54 27 33 0.030540584801 0.038764584801 2 1028 1028 2056 2113568
42	6495 54 27 33 0.030540584801 0.038764584801 2 1028 1028 2056 2113568
44	6549 20 0 0 0 0 2 0 2 2 4
45	6569 130 0 44 0 0.041387078249 6 1 3 13 33
